[General]
network = Network

sim-time-limit = 200s

Network.sender.senderAppLayer.generationInterval = exponential(0.1)

Network.**.packetByteSize = 12500

Network.dataQueue.bufferSize = 200
Network.ackQueue.bufferSize = 200

Network.rec.transpRec.bufferSize = 200

Network.sender.transpSend.bufferSize = 2000000
